/*---------------------------------------------------------------------------*\
  =========                 |
  \\      /  F ield         | OpenFOAM: The Open Source CFD Toolbox
   \\    /   O peration     | Website:  https://openfoam.org
    \\  /    A nd           | Version:  dev
     \\/     M anipulation  |
\*---------------------------------------------------------------------------*/
Build  : dev-d0db21bb6d5e
Exec   : parallelTest
Date   : Feb 25 2025
Time   : 15:39:51
Host   : "fgpu01"
PID    : 2872065
I/O    : uncollated
Case   : /u2/pjppetteri/OpenFOAM/pjppetteri-dev/run/Random/channel395
nProcs : 1
sigFpe : Enabling floating point exception trapping (FOAM_SIGFPE).
fileModificationChecking : Monitoring run-time modified files using timeStampMaster (fileModificationSkew 10)
allowSystemOperations : Allowing user-supplied system call operations

// * * * * * * * * * * * * * * * * * * * * * * * * * * * * * * * * * * * * * //

~~~~~~~~~~~~~~~~~~~~~~~~~~~~~~~~~~~~~~~~~~~~~~~~~~~~~~~~~~~~~~~~~~~~~~~~~~~~~~~
Test-Ranges is a Catch v2.13.10 host application.
Run with -? for options

-------------------------------------------------------------------------------
Benchmark-Ranges
  scalarField
-------------------------------------------------------------------------------
Benchmark-ranges.C:30
...............................................................................

benchmark name                            samples    iterations          mean
-------------------------------------------------------------------------------
WARMUP                                         100             3    11.5003 us 
scalar * f (old)                               100             3    11.3358 us 
scalar * f (new)                               100             2    16.4568 us 
f + f (old)                                    100             3    11.8335 us 
f + f (new)                                    100             2    16.5256 us 
f + f + f (old)                                100             1    46.0925 us 
f + f + f (new)                                100             3      12.08 us 
f + f + f + f (old)                            100             1    79.3271 us 
f + f + f + f (new)                            100             2    16.8235 us 

-------------------------------------------------------------------------------
Benchmark-Ranges
  vectorField
-------------------------------------------------------------------------------
Benchmark-ranges.C:71
...............................................................................

benchmark name                            samples    iterations          mean
-------------------------------------------------------------------------------
WARMUP                                         100             1    36.1884 us 
scalar * f (old)                               100             1    41.7474 us 
scalar * f (new)                               100             1    36.4315 us 
f + f (old)                                    100             1    35.6143 us 
f + f (new)                                    100             1    34.6951 us 
f + f + f (old)                                100             1    79.9474 us 
f + f + f (new)                                100             1     35.249 us 
f + f + f + f (old)                            100             1    124.206 us 
f + f + f + f (new)                            100             1    40.1113 us 

-------------------------------------------------------------------------------
Benchmark-Ranges
  volScalarField
-------------------------------------------------------------------------------
Benchmark-ranges.C:114
...............................................................................

benchmark name                            samples    iterations          mean
-------------------------------------------------------------------------------
WARMUP                                         100             2    20.4756 us 
scalar * p (old)                               100             2    21.3047 us 
scalar * p (new)                               100             2    17.7267 us 
p + p (old)                                    100             2     20.198 us 
p + p (new)                                    100             2    18.5679 us 
p + p + p (old)                                100             1    61.0022 us 
p + p + p (new)                                100             2    20.6023 us 
p + p + p + p (old)                            100             1    100.059 us 
p + p + p + p (new)                            100             2     24.869 us 

-------------------------------------------------------------------------------
Benchmark-Ranges
  volVectorFieldType
-------------------------------------------------------------------------------
Benchmark-ranges.C:155
...............................................................................

benchmark name                            samples    iterations          mean
-------------------------------------------------------------------------------
WARMUP                                         100             1    54.6074 us 
scalar * U (old)                               100             1    59.5072 us 
scalar * U (new)                               100             1    43.7471 us 
U + U (old)                                    100             1    53.7059 us 
U + U (new)                                    100             1    47.1047 us 
U + U + U (old)                                100             1    108.882 us 
U + U + U (new)                                100             1    55.4676 us 
U + U + U + U (old)                            100             1    162.765 us 
U + U + U + U (new)                            100             1    69.0399 us 

-------------------------------------------------------------------------------
Benchmark-Ranges
  Mixed volField operations
-------------------------------------------------------------------------------
Benchmark-ranges.C:197
...............................................................................

benchmark name                            samples    iterations          mean
-------------------------------------------------------------------------------
WARMUP                                         100             1     199.16 us 
mag(p) * U (old)                               100             1    77.7965 us 
mag(p) * U (new)                               100             1    56.3531 us 
mag(p) * U + mag(p) * U (old)                  100             1    200.657 us 
mag(p) * U + mag(p) * U (new)                  100             1    90.9383 us 

===============================================================================
All tests passed (128 assertions in 5 test cases)

